/*--------------------------------*- C++ -*----------------------------------*\
| =========                 |                                                 |
| \\      /  F ield         | OpenFOAM: The Open Source CFD Toolbox           |
|  \\    /   O peration     | Version:  9                                     |
|   \\  /    A nd           | Web:      www.OpenFOAM.org                      |
|    \\/     M anipulation  |                                                 |
\*---------------------------------------------------------------------------*/
FoamFile
{
    version     2.0;
    format      ascii;
    class       dictionary;
    object      fvSolution;
}
// * * * * * * * * * * * * * * * * * * * * * * * * * * * * * * * * * * * * * //

solvers
{
    e
    {
        solver           PCG;
        preconditioner   DIC;
        tolerance        1e-06;
        relTol           0.1;
    }

    eFinal
    {
        $e;
        relTol           0;
    }
}

PIMPLE
{
    nNonOrthogonalCorrectors 0;
    nCorrectors       2;
    nOuterCorrectors  1;

    residualControl
    {
        e               1e-3
    }
}

relaxationFactors
{
    equations
    {
        ".*" 1;
    }
}

// ************************************************************************* //
