/*--------------------------------*- C++ -*----------------------------------*\
| =========                 |                                                 |
| \\      /  F ield         | OpenFOAM: The Open Source CFD Toolbox           |
|  \\    /   O peration     | Version:  5                                     |
|   \\  /    A nd           | Web:      www.OpenFOAM.org                      |
|    \\/     M anipulation  |                                                 |
\*---------------------------------------------------------------------------*/
FoamFile
{
    version     2.0;
    format      ascii;
    class       dictionary;
    object      thermophysicalProperties;
}
// * * * * * * * * * * * * * * * * * * * * * * * * * * * * * * * * * * * * * //

thermoType
{
    type            heRhoThermo;
    mixture         pureMixture;
    transport       polynomial;
    thermo          hPolynomial;
    equationOfState icoPolynomial;
    specie          specie;
    energy          sensibleEnthalpy;
}


mixture
{
    // coefficients for water

    specie
    {
        molWeight       18;
    }
    equationOfState
    {
        rhoCoeffs<8>    (1.00462662e3 -8.48962153e-2  8.28168371e-4 -3.28522970e-6 4.53743899e-9 2.31868257e-12 0 0 );
    }
    thermodynamics
    {
        Hf              0;
        Sf              0;
        CpCoeffs<8>     (4180  0 0 0 0 0 0 0 );
    }
    transport
    {
        muCoeffs<8>     ( 7.97e-4  0 0 0 0 0 0 0 );
        kappaCoeffs<8>  ( 0.62 0 0 0 0 0 0 0 );
    }
}

// ************************************************************************* //
