/*--------------------------------*- C++ -*----------------------------------*\
| =========                 |                                                 |
| \\      /  F ield         | OpenFOAM: The Open Source CFD Toolbox           |
|  \\    /   O peration     | Version:  9                                     |
|   \\  /    A nd           | Web:      www.OpenFOAM.org                      |
|    \\/     M anipulation  |                                                 |
\*---------------------------------------------------------------------------*/
FoamFile
{
    version     2.0;
    format      ascii;
    class       dictionary;
    object      thermophysicalProperties;
}
// * * * * * * * * * * * * * * * * * * * * * * * * * * * * * * * * * * * * * //

thermoType
{
    type            heSolidThermo;
    mixture         pureMixture;
    transport       polynomial;
    thermo          ePolynomial;
    equationOfState rhoConst;
    specie          specie;
    energy          sensibleInternalEnergy;
}

mixture
{
    specie
    {
        molWeight   498;
    }

    transport
    {
        kappaCoeffs<8>   (22.872 -4.3131e-2 1.124e-4 -1.0039e-11 0 0 0 0 );
    }

    thermodynamics
    {
        Hf      0;
        Sf      0;
        CvCoeffs<8>      (294 0.6196 -2.748e-6 1.354e-8 0 0 0 0 );
    }

    equationOfState
    {
        rho     6128;
    }
}

// ************************************************************************* //
